data_image0
_chemical_formula_structural       Ti3C2O2H2
_chemical_formula_sum              "Ti3 C2 O2 H2"
_cell_length_a       3.08664
_cell_length_b       3.08664
_cell_length_c       24.1957
_cell_angle_alpha    90
_cell_angle_beta     90
_cell_angle_gamma    120

_space_group_name_H-M_alt    "P 1"
_space_group_IT_number       1

loop_
  _space_group_symop_operation_xyz
  'x, y, z'

loop_
  _atom_site_type_symbol
  _atom_site_label
  _atom_site_symmetry_multiplicity
  _atom_site_fract_x
  _atom_site_fract_y
  _atom_site_fract_z
  _atom_site_occupancy
  Ti  Ti1       1.0  0.00000  0.00000  0.50000  1.0000
  Ti  Ti2       1.0  0.66667  0.33333  0.59751  1.0000
  Ti  Ti3       1.0  0.66667  0.33333  0.40248  1.0000
  C   C1        1.0  0.33333  0.66667  0.55353  1.0000
  C   C2        1.0  0.33333  0.66667  0.44647  1.0000
  O   O1        1.0  0.00000  0.00000  0.65033  1.0000
  O   O2        1.0  0.00000  0.00000  0.34967  1.0000
  H   H1        1.0  0.00000  0.00000  0.69054  1.0000
  H   H2        1.0  0.00000  0.00000  0.30946  1.0000
